test/resources/V1_1/threeWindingsTransformerRoundTripRef.xml
<?xml version="1.0" encoding="UTF-8"?>
<iidm:network xmlns:iidm="http://www.powsybl.org/schema/iidm/1_1" id="three-windings-transformer" caseDate="2018-03-05T13:30:30.486000+01:00" forecastDistance="0" sourceFormat="test">
    <iidm:substation id="SUBSTATION" country="FR">
        <iidm:voltageLevel id="VL_132" nominalV="132" lowVoltageLimit="118.8" highVoltageLimit="145.19999999999999" topologyKind="BUS_BREAKER">
            <iidm:busBreakerTopology>
                <iidm:bus id="BUS_132" v="133.584" angle="-9.6199999999999992"/>
            </iidm:busBreakerTopology>
            <iidm:load id="LOAD_132" loadType="UNDEFINED" p0="7.5999999999999996" q0="1.6000000000000001" bus="BUS_132" connectableBus="BUS_132"/>
        </iidm:voltageLevel>
        <iidm:voltageLevel id="VL_33" nominalV="33" lowVoltageLimit="29.699999999999999" highVoltageLimit="36.299999999999997" topologyKind="BUS_BREAKER">
            <iidm:busBreakerTopology>
                <iidm:bus id="BUS_33" v="34.881" angle="-15.24"/>
            </iidm:busBreakerTopology>
            <iidm:load id="LOAD_33" loadType="UNDEFINED" p0="11.199999999999999" q0="7.5" bus="BUS_33" connectableBus="BUS_33" p="11.199999999999999" q="7.5"/>
        </iidm:voltageLevel>
        <iidm:voltageLevel id="VL_11" nominalV="11" lowVoltageLimit="9.9000000000000004" highVoltageLimit="12.1" topologyKind="BUS_BREAKER">
            <iidm:busBreakerTopology>
                <iidm:bus id="BUS_11" v="11.781000000000001" angle="-15.24"/>
            </iidm:busBreakerTopology>
            <iidm:load id="LOAD_11" loadType="UNDEFINED" p0="0" q0="-10.6" bus="BUS_11" connectableBus="BUS_11" p="0" q="-10.6"/>
        </iidm:voltageLevel>
        <iidm:threeWindingsTransformer id="3WT" r1="17.423999999999999" x1="1.7423999999999999" g1="0.0057392102846648297" b1="0.00057392102846648299" ratedU1="132" r2="1.089" x2="0.1089" ratedU2="33" r3="0.121" x3="0.0121" ratedU3="11" bus1="BUS_132" connectableBus1="BUS_132" voltageLevelId1="VL_132" bus2="BUS_33" connectableBus2="BUS_33" voltageLevelId2="VL_33" bus3="BUS_11" connectableBus3="BUS_11" voltageLevelId3="VL_11">
            <iidm:ratioTapChanger2 lowTapPosition="0" tapPosition="2" loadTapChangingCapabilities="true" regulating="true" targetV="33">
                <iidm:terminalRef id="LOAD_33"/>
                <iidm:step r="0.98009999999999997" x="0.09801" g="0.082644628099173556" b="0.0082644628099173556" rho="0.90000000000000002"/>
                <iidm:step r="1.089" x="0.1089" g="0.091827364554637275" b="0.0091827364554637279" rho="1"/>
                <iidm:step r="1.1979" x="0.11978999999999999" g="0.10101010101010101" b="0.0101010101010101" rho="1.1000000000000001"/>
            </iidm:ratioTapChanger2>
            <iidm:ratioTapChanger3 lowTapPosition="0" tapPosition="0" loadTapChangingCapabilities="true" regulating="false" targetV="11">
                <iidm:terminalRef id="LOAD_11"/>
                <iidm:step r="0.1089" x="0.01089" g="0.82644628099173556" b="0.082644628099173556" rho="0.90000000000000002"/>
                <iidm:step r="0.121" x="0.0121" g="0.82644628099173556" b="0.082644628099173556" rho="1"/>
                <iidm:step r="0.1331" x="0.013310000000000001" g="0.90909090909090917" b="0.090909090909090925" rho="1.1000000000000001"/>
            </iidm:ratioTapChanger3>
            <iidm:currentLimits1 permanentLimit="1000">
                <iidm:temporaryLimit name="20'" acceptableDuration="1200" value="1200"/>
                <iidm:temporaryLimit name="10'" acceptableDuration="600" value="1400"/>
            </iidm:currentLimits1>
            <iidm:currentLimits2 permanentLimit="100">
                <iidm:temporaryLimit name="20'" acceptableDuration="1200" value="120"/>
                <iidm:temporaryLimit name="10'" acceptableDuration="600" value="140"/>
            </iidm:currentLimits2>
            <iidm:currentLimits3 permanentLimit="10">
                <iidm:temporaryLimit name="20'" acceptableDuration="1200" value="12"/>
                <iidm:temporaryLimit name="10'" acceptableDuration="600" value="14"/>
            </iidm:currentLimits3>
        </iidm:threeWindingsTransformer>
    </iidm:substation>
</iidm:network>
